13
Heuristics 0, family: H_Abstraction
O       1.43737501    1.58112543    0.11736859
H       1.91964767    0.94498354   -0.43190148
C      -0.56973933    0.33273539    0.85620513
C      -0.56973933   -1.07932964    0.29545430
C      -0.56973933   -1.07932964   -1.22387712
H       0.49495302    0.99495542    0.46428246
H      -0.56974009    0.30632918    1.95037139
H      -1.45698277    0.88458559    0.52960176
H      -1.45215392   -1.61664363    0.66021021
H       0.31267551   -1.61664347    0.66021015
H       0.31750394   -0.57210955   -1.61622419
H      -1.45698284   -0.57210984   -1.61622421
H      -0.56973904   -2.10599214   -1.60316719
