13
Heuristics 3, family: H_Abstraction
O       1.44703223    1.55623295    0.10154321
H       1.34416194    2.42835647    0.51115192
C      -0.56008211    0.30784291    0.84037976
C      -0.56008211   -1.10422212    0.27962892
C      -0.56008211   -1.10422212   -1.23970250
H       0.50461024    0.97006294    0.44845708
H      -0.56008286    0.28143670    1.93454601
H      -1.44732554    0.85969312    0.51377638
H      -1.44249669   -1.64153611    0.64438483
H       0.32233273   -1.64153595    0.64438478
H       0.32716117   -0.59700202   -1.63204956
H      -1.44732561   -0.59700232   -1.63204959
H      -0.56008181   -2.13088462   -1.61899257
