13
Heuristics 5, family: H_Abstraction
O       1.43311914    1.57920858    0.10256831
H       2.17326027    1.05921040    0.45006511
C      -0.57399521    0.33081855    0.84140485
C      -0.57399521   -1.08124648    0.28065402
C      -0.57399521   -1.08124648   -1.23867740
H       0.49069715    0.99303858    0.44948218
H      -0.57399596    0.30441234    1.93557111
H      -1.46123864    0.88266875    0.51480148
H      -1.45640979   -1.61856047    0.64540993
H       0.30841964   -1.61856031    0.64540987
H       0.31324807   -0.57402639   -1.63102447
H      -1.46123871   -0.57402668   -1.63102449
H      -0.57399491   -2.10790898   -1.61796747
